
OS:Version,
  {fe733f42-3b3c-477f-a364-f724356cc622}, !- Handle
  1.6.0;                                  !- Version Identifier

OS:Material,
  {17e8f814-7c3a-4d0f-9bd1-7d15f9c36165}, !- Handle
  aim1553,                                !- Name
  Smooth,                                 !- Roughness
  0.0127,                                 !- Thickness {m}
  0.06,                                   !- Conductivity {W/m-K}
  288,                                    !- Density {kg/m3}
  1380;                                   !- Specific Heat {J/kg-K}

OS:Material,
  {8b0d529e-4807-489e-b11f-41e8a5404c9f}, !- Handle
  aim1559,                                !- Name
  Smooth,                                 !- Roughness
  0.2,                                    !- Thickness {m}
  1.9,                                    !- Conductivity {W/m-K}
  2300,                                   !- Density {kg/m3}
  840;                                    !- Specific Heat {J/kg-K}

OS:Material:NoMass,
  {8cb4b4f4-ebc5-4b74-b116-7231a8c761c3}, !- Handle
  aim1571,                                !- Name
  Smooth,                                 !- Roughness
  0.01158016;                             !- Thermal Resistance {m2-K/W}

OS:Material,
  {dda8e772-df3a-453b-b128-0badfc401f61}, !- Handle
  aim1582,                                !- Name
  Smooth,                                 !- Roughness
  0.0008,                                 !- Thickness {m}
  45.28,                                  !- Conductivity {W/m-K}
  7824,                                   !- Density {kg/m3}
  500;                                    !- Specific Heat {J/kg-K}

OS:Material,
  {130b91e5-640a-4912-bf21-5d6a50ab4d7d}, !- Handle
  aim1588,                                !- Name
  Smooth,                                 !- Roughness
  0.0376,                                 !- Thickness {m}
  0.15,                                   !- Conductivity {W/m-K}
  608,                                    !- Density {kg/m3}
  1630;                                   !- Specific Heat {J/kg-K}

OS:Material:NoMass,
  {8ca3c5dc-dc4e-4526-a41c-a4f6b240b879}, !- Handle
  aim1601,                                !- Name
  Smooth,                                 !- Roughness
  0.006936632;                            !- Thermal Resistance {m2-K/W}

OS:Material:NoMass,
  {4ec5760c-4900-4268-abd0-3349d56a46d8}, !- Handle
  aim1612,                                !- Name
  Smooth,                                 !- Roughness
  1.46524;                                !- Thermal Resistance {m2-K/W}

OS:Material,
  {c171d7a9-59da-4741-aa35-9f559ee426c9}, !- Handle
  aim1615,                                !- Name
  Smooth,                                 !- Roughness
  0.0159,                                 !- Thickness {m}
  0.16,                                   !- Conductivity {W/m-K}
  800,                                    !- Density {kg/m3}
  1090;                                   !- Specific Heat {J/kg-K}

OS:Construction,
  {79b00d68-5fae-46aa-b860-c40559de2e33}, !- Handle
  aim1550,                                !- Name
  {3b731d9b-500b-4880-9d03-75d398e7d761}, !- Surface Rendering Name
  {17e8f814-7c3a-4d0f-9bd1-7d15f9c36165}, !- Layer 1
  {8b0d529e-4807-489e-b11f-41e8a5404c9f}; !- Layer 2

OS:Construction,
  {6b395aea-17f0-4169-987d-4f5d039a5dc6}, !- Handle
  aim1566,                                !- Name
  {9a525fdd-ffcb-4f3e-bc73-0ad5e8a23cc1}, !- Surface Rendering Name
  {8cb4b4f4-ebc5-4b74-b116-7231a8c761c3}; !- Layer 1

OS:Construction,
  {137a4b0f-04e9-4dcc-9574-cb479b6db61c}, !- Handle
  aim1579,                                !- Name
  {2f90ff44-8b9e-40f9-95f9-317a7db72d34}, !- Surface Rendering Name
  {dda8e772-df3a-453b-b128-0badfc401f61}, !- Layer 1
  {130b91e5-640a-4912-bf21-5d6a50ab4d7d}, !- Layer 2
  {dda8e772-df3a-453b-b128-0badfc401f61}; !- Layer 3

OS:Construction,
  {7dc80f3d-3535-42f1-a036-e475579533b8}, !- Handle
  aim1596,                                !- Name
  {71743c7c-8ad6-4fca-a753-6b36e515df0a}, !- Surface Rendering Name
  {8ca3c5dc-dc4e-4526-a41c-a4f6b240b879}; !- Layer 1

OS:Construction,
  {a3f52d41-1183-41a8-a677-37da0bc91a76}, !- Handle
  aim1609,                                !- Name
  {2f59d743-c663-4a76-a4e3-b405ca27495e}, !- Surface Rendering Name
  {4ec5760c-4900-4268-abd0-3349d56a46d8}, !- Layer 1
  {c171d7a9-59da-4741-aa35-9f559ee426c9}; !- Layer 2

OS:Schedule:Year,
  {20ad43e0-b4cc-42ab-a1b7-ff5008b0b377}, !- Handle
  aim0055,                                !- Name
  {a7f25e2c-c9d1-4958-a3b4-905d6ae3cab2}, !- Schedule Type Limits Name
  12,                                     !- Month 1
  31,                                     !- Day 1
  {bc998ffb-561c-4e0e-b905-a3961d1b9ef7}; !- Week Schedule Until Date 1

OS:ScheduleTypeLimits,
  {a7f25e2c-c9d1-4958-a3b4-905d6ae3cab2}, !- Handle
  Fraction,                               !- Name
  ,                                       !- Lower Limit Value {BasedOnField A4}
  ,                                       !- Upper Limit Value {BasedOnField A4}
  ,                                       !- Numeric Type
  Dimensionless;                          !- Unit Type

OS:YearDescription,
  {8b62fba1-07c8-413c-8ea3-52f442cf6856}, !- Handle
  2015,                                   !- Calendar Year
  ,                                       !- Day of Week for Start Day
  ;                                       !- Is Leap Year

OS:Schedule:Week,
  {bc998ffb-561c-4e0e-b905-a3961d1b9ef7}, !- Handle
  aim0053,                                !- Name
  ,                                       !- Schedule Rendering Name
  {543d9bed-2aa8-4a48-9f6f-3bcee64a8478}, !- Sunday Schedule:Day Name
  {543d9bed-2aa8-4a48-9f6f-3bcee64a8478}, !- Monday Schedule:Day Name
  {543d9bed-2aa8-4a48-9f6f-3bcee64a8478}, !- Tuesday Schedule:Day Name
  {543d9bed-2aa8-4a48-9f6f-3bcee64a8478}, !- Wednesday Schedule:Day Name
  {543d9bed-2aa8-4a48-9f6f-3bcee64a8478}, !- Thursday Schedule:Day Name
  {543d9bed-2aa8-4a48-9f6f-3bcee64a8478}, !- Friday Schedule:Day Name
  {543d9bed-2aa8-4a48-9f6f-3bcee64a8478}, !- Saturday Schedule:Day Name
  {543d9bed-2aa8-4a48-9f6f-3bcee64a8478}, !- Holiday Schedule:Day Name
  {543d9bed-2aa8-4a48-9f6f-3bcee64a8478}, !- SummerDesignDay Schedule:Day Name
  {543d9bed-2aa8-4a48-9f6f-3bcee64a8478}, !- WinterDesignDay Schedule:Day Name
  {543d9bed-2aa8-4a48-9f6f-3bcee64a8478}, !- CustomDay1 Schedule:Day Name
  {543d9bed-2aa8-4a48-9f6f-3bcee64a8478}; !- CustomDay2 Schedule:Day Name

OS:Schedule:Day,
  {543d9bed-2aa8-4a48-9f6f-3bcee64a8478}, !- Handle
  aim0052,                                !- Name
  {a7f25e2c-c9d1-4958-a3b4-905d6ae3cab2}, !- Schedule Type Limits Name
  ,                                       !- Interpolate to Timestep
  1,                                      !- Hour 1
  0,                                      !- Minute 1
  0,                                      !- Value Until Time 1
  2,                                      !- Hour 2
  0,                                      !- Minute 2
  0,                                      !- Value Until Time 2
  3,                                      !- Hour 3
  0,                                      !- Minute 3
  0,                                      !- Value Until Time 3
  4,                                      !- Hour 4
  0,                                      !- Minute 4
  0,                                      !- Value Until Time 4
  5,                                      !- Hour 5
  0,                                      !- Minute 5
  0,                                      !- Value Until Time 5
  6,                                      !- Hour 6
  0,                                      !- Minute 6
  0,                                      !- Value Until Time 6
  7,                                      !- Hour 7
  0,                                      !- Minute 7
  0.1,                                    !- Value Until Time 7
  8,                                      !- Hour 8
  0,                                      !- Minute 8
  0.3,                                    !- Value Until Time 8
  9,                                      !- Hour 9
  0,                                      !- Minute 9
  0.9,                                    !- Value Until Time 9
  10,                                     !- Hour 10
  0,                                      !- Minute 10
  0.9,                                    !- Value Until Time 10
  11,                                     !- Hour 11
  0,                                      !- Minute 11
  0.9,                                    !- Value Until Time 11
  12,                                     !- Hour 12
  0,                                      !- Minute 12
  0.9,                                    !- Value Until Time 12
  13,                                     !- Hour 13
  0,                                      !- Minute 13
  0.8,                                    !- Value Until Time 13
  14,                                     !- Hour 14
  0,                                      !- Minute 14
  0.9,                                    !- Value Until Time 14
  15,                                     !- Hour 15
  0,                                      !- Minute 15
  0.9,                                    !- Value Until Time 15
  16,                                     !- Hour 16
  0,                                      !- Minute 16
  0.9,                                    !- Value Until Time 16
  17,                                     !- Hour 17
  0,                                      !- Minute 17
  0.9,                                    !- Value Until Time 17
  18,                                     !- Hour 18
  0,                                      !- Minute 18
  0.5,                                    !- Value Until Time 18
  19,                                     !- Hour 19
  0,                                      !- Minute 19
  0.3,                                    !- Value Until Time 19
  20,                                     !- Hour 20
  0,                                      !- Minute 20
  0.3,                                    !- Value Until Time 20
  21,                                     !- Hour 21
  0,                                      !- Minute 21
  0.2,                                    !- Value Until Time 21
  22,                                     !- Hour 22
  0,                                      !- Minute 22
  0.2,                                    !- Value Until Time 22
  23,                                     !- Hour 23
  0,                                      !- Minute 23
  0,                                      !- Value Until Time 23
  24,                                     !- Hour 24
  0,                                      !- Minute 24
  0;                                      !- Value Until Time 24

OS:Schedule:Year,
  {4d8085e2-94ac-4eea-9861-ae33a34aec37}, !- Handle
  aim0061,                                !- Name
  {a7f25e2c-c9d1-4958-a3b4-905d6ae3cab2}, !- Schedule Type Limits Name
  12,                                     !- Month 1
  31,                                     !- Day 1
  {cb7e0eef-685c-4cc0-95b9-6f20aa283f21}; !- Week Schedule Until Date 1

OS:Schedule:Week,
  {cb7e0eef-685c-4cc0-95b9-6f20aa283f21}, !- Handle
  aim0059,                                !- Name
  ,                                       !- Schedule Rendering Name
  {3d8ceec5-efe1-4760-ba6f-8c5e3cdbaa85}, !- Sunday Schedule:Day Name
  {3d8ceec5-efe1-4760-ba6f-8c5e3cdbaa85}, !- Monday Schedule:Day Name
  {3d8ceec5-efe1-4760-ba6f-8c5e3cdbaa85}, !- Tuesday Schedule:Day Name
  {3d8ceec5-efe1-4760-ba6f-8c5e3cdbaa85}, !- Wednesday Schedule:Day Name
  {3d8ceec5-efe1-4760-ba6f-8c5e3cdbaa85}, !- Thursday Schedule:Day Name
  {3d8ceec5-efe1-4760-ba6f-8c5e3cdbaa85}, !- Friday Schedule:Day Name
  {3d8ceec5-efe1-4760-ba6f-8c5e3cdbaa85}, !- Saturday Schedule:Day Name
  {3d8ceec5-efe1-4760-ba6f-8c5e3cdbaa85}, !- Holiday Schedule:Day Name
  {3d8ceec5-efe1-4760-ba6f-8c5e3cdbaa85}, !- SummerDesignDay Schedule:Day Name
  {3d8ceec5-efe1-4760-ba6f-8c5e3cdbaa85}, !- WinterDesignDay Schedule:Day Name
  {3d8ceec5-efe1-4760-ba6f-8c5e3cdbaa85}, !- CustomDay1 Schedule:Day Name
  {3d8ceec5-efe1-4760-ba6f-8c5e3cdbaa85}; !- CustomDay2 Schedule:Day Name

OS:Schedule:Day,
  {3d8ceec5-efe1-4760-ba6f-8c5e3cdbaa85}, !- Handle
  aim0058,                                !- Name
  {a7f25e2c-c9d1-4958-a3b4-905d6ae3cab2}, !- Schedule Type Limits Name
  ,                                       !- Interpolate to Timestep
  1,                                      !- Hour 1
  0,                                      !- Minute 1
  0,                                      !- Value Until Time 1
  2,                                      !- Hour 2
  0,                                      !- Minute 2
  0,                                      !- Value Until Time 2
  3,                                      !- Hour 3
  0,                                      !- Minute 3
  0,                                      !- Value Until Time 3
  4,                                      !- Hour 4
  0,                                      !- Minute 4
  0,                                      !- Value Until Time 4
  5,                                      !- Hour 5
  0,                                      !- Minute 5
  0,                                      !- Value Until Time 5
  6,                                      !- Hour 6
  0,                                      !- Minute 6
  0,                                      !- Value Until Time 6
  7,                                      !- Hour 7
  0,                                      !- Minute 7
  0,                                      !- Value Until Time 7
  8,                                      !- Hour 8
  0,                                      !- Minute 8
  0.1,                                    !- Value Until Time 8
  9,                                      !- Hour 9
  0,                                      !- Minute 9
  0.2,                                    !- Value Until Time 9
  10,                                     !- Hour 10
  0,                                      !- Minute 10
  0.95,                                   !- Value Until Time 10
  11,                                     !- Hour 11
  0,                                      !- Minute 11
  0.95,                                   !- Value Until Time 11
  12,                                     !- Hour 12
  0,                                      !- Minute 12
  0.45,                                   !- Value Until Time 12
  13,                                     !- Hour 13
  0,                                      !- Minute 13
  0.45,                                   !- Value Until Time 13
  14,                                     !- Hour 14
  0,                                      !- Minute 14
  0.95,                                   !- Value Until Time 14
  15,                                     !- Hour 15
  0,                                      !- Minute 15
  0.95,                                   !- Value Until Time 15
  16,                                     !- Hour 16
  0,                                      !- Minute 16
  0.95,                                   !- Value Until Time 16
  17,                                     !- Hour 17
  0,                                      !- Minute 17
  0.95,                                   !- Value Until Time 17
  18,                                     !- Hour 18
  0,                                      !- Minute 18
  0.95,                                   !- Value Until Time 18
  19,                                     !- Hour 19
  0,                                      !- Minute 19
  0.3,                                    !- Value Until Time 19
  20,                                     !- Hour 20
  0,                                      !- Minute 20
  0.1,                                    !- Value Until Time 20
  21,                                     !- Hour 21
  0,                                      !- Minute 21
  0.1,                                    !- Value Until Time 21
  22,                                     !- Hour 22
  0,                                      !- Minute 22
  0.1,                                    !- Value Until Time 22
  23,                                     !- Hour 23
  0,                                      !- Minute 23
  0,                                      !- Value Until Time 23
  24,                                     !- Hour 24
  0,                                      !- Minute 24
  0;                                      !- Value Until Time 24

OS:Schedule:Year,
  {e80147c8-52d5-41e4-b0de-ffe74e130afc}, !- Handle
  aim0448,                                !- Name
  {a7f25e2c-c9d1-4958-a3b4-905d6ae3cab2}, !- Schedule Type Limits Name
  12,                                     !- Month 1
  31,                                     !- Day 1
  {9252c641-08bc-4785-8e89-5a8ab281b1cb}; !- Week Schedule Until Date 1

OS:Schedule:Week,
  {9252c641-08bc-4785-8e89-5a8ab281b1cb}, !- Handle
  aim0446,                                !- Name
  ,                                       !- Schedule Rendering Name
  {703005b0-245b-466b-80cd-08a6fe039ddf}, !- Sunday Schedule:Day Name
  {703005b0-245b-466b-80cd-08a6fe039ddf}, !- Monday Schedule:Day Name
  {703005b0-245b-466b-80cd-08a6fe039ddf}, !- Tuesday Schedule:Day Name
  {703005b0-245b-466b-80cd-08a6fe039ddf}, !- Wednesday Schedule:Day Name
  {703005b0-245b-466b-80cd-08a6fe039ddf}, !- Thursday Schedule:Day Name
  {703005b0-245b-466b-80cd-08a6fe039ddf}, !- Friday Schedule:Day Name
  {703005b0-245b-466b-80cd-08a6fe039ddf}, !- Saturday Schedule:Day Name
  {703005b0-245b-466b-80cd-08a6fe039ddf}, !- Holiday Schedule:Day Name
  {703005b0-245b-466b-80cd-08a6fe039ddf}, !- SummerDesignDay Schedule:Day Name
  {703005b0-245b-466b-80cd-08a6fe039ddf}, !- WinterDesignDay Schedule:Day Name
  {703005b0-245b-466b-80cd-08a6fe039ddf}, !- CustomDay1 Schedule:Day Name
  {703005b0-245b-466b-80cd-08a6fe039ddf}; !- CustomDay2 Schedule:Day Name

OS:Schedule:Day,
  {703005b0-245b-466b-80cd-08a6fe039ddf}, !- Handle
  aim0445,                                !- Name
  {a7f25e2c-c9d1-4958-a3b4-905d6ae3cab2}, !- Schedule Type Limits Name
  ,                                       !- Interpolate to Timestep
  1,                                      !- Hour 1
  0,                                      !- Minute 1
  0.15,                                   !- Value Until Time 1
  2,                                      !- Hour 2
  0,                                      !- Minute 2
  0.15,                                   !- Value Until Time 2
  3,                                      !- Hour 3
  0,                                      !- Minute 3
  0.05,                                   !- Value Until Time 3
  4,                                      !- Hour 4
  0,                                      !- Minute 4
  0,                                      !- Value Until Time 4
  5,                                      !- Hour 5
  0,                                      !- Minute 5
  0,                                      !- Value Until Time 5
  6,                                      !- Hour 6
  0,                                      !- Minute 6
  0,                                      !- Value Until Time 6
  7,                                      !- Hour 7
  0,                                      !- Minute 7
  0,                                      !- Value Until Time 7
  8,                                      !- Hour 8
  0,                                      !- Minute 8
  0.05,                                   !- Value Until Time 8
  9,                                      !- Hour 9
  0,                                      !- Minute 9
  0.05,                                   !- Value Until Time 9
  10,                                     !- Hour 10
  0,                                      !- Minute 10
  0.05,                                   !- Value Until Time 10
  11,                                     !- Hour 11
  0,                                      !- Minute 11
  0.2,                                    !- Value Until Time 11
  12,                                     !- Hour 12
  0,                                      !- Minute 12
  0.5,                                    !- Value Until Time 12
  13,                                     !- Hour 13
  0,                                      !- Minute 13
  0.8,                                    !- Value Until Time 13
  14,                                     !- Hour 14
  0,                                      !- Minute 14
  0.7,                                    !- Value Until Time 14
  15,                                     !- Hour 15
  0,                                      !- Minute 15
  0.4,                                    !- Value Until Time 15
  16,                                     !- Hour 16
  0,                                      !- Minute 16
  0.2,                                    !- Value Until Time 16
  17,                                     !- Hour 17
  0,                                      !- Minute 17
  0.25,                                   !- Value Until Time 17
  18,                                     !- Hour 18
  0,                                      !- Minute 18
  0.5,                                    !- Value Until Time 18
  19,                                     !- Hour 19
  0,                                      !- Minute 19
  0.8,                                    !- Value Until Time 19
  20,                                     !- Hour 20
  0,                                      !- Minute 20
  0.8,                                    !- Value Until Time 20
  21,                                     !- Hour 21
  0,                                      !- Minute 21
  0.8,                                    !- Value Until Time 21
  22,                                     !- Hour 22
  0,                                      !- Minute 22
  0.5,                                    !- Value Until Time 22
  23,                                     !- Hour 23
  0,                                      !- Minute 23
  0.35,                                   !- Value Until Time 23
  24,                                     !- Hour 24
  0,                                      !- Minute 24
  0.2;                                    !- Value Until Time 24

OS:Schedule:Year,
  {af5d7d16-d93c-46dd-b5a6-5bd626428827}, !- Handle
  aim0502,                                !- Name
  {a7f25e2c-c9d1-4958-a3b4-905d6ae3cab2}, !- Schedule Type Limits Name
  12,                                     !- Month 1
  31,                                     !- Day 1
  {192fd023-4210-4544-a7d5-1b0f4094e307}; !- Week Schedule Until Date 1

OS:Schedule:Week,
  {192fd023-4210-4544-a7d5-1b0f4094e307}, !- Handle
  aim0500,                                !- Name
  ,                                       !- Schedule Rendering Name
  {bbd5fccc-24ed-4b5d-bac4-246eaa6cda43}, !- Sunday Schedule:Day Name
  {bbd5fccc-24ed-4b5d-bac4-246eaa6cda43}, !- Monday Schedule:Day Name
  {bbd5fccc-24ed-4b5d-bac4-246eaa6cda43}, !- Tuesday Schedule:Day Name
  {bbd5fccc-24ed-4b5d-bac4-246eaa6cda43}, !- Wednesday Schedule:Day Name
  {bbd5fccc-24ed-4b5d-bac4-246eaa6cda43}, !- Thursday Schedule:Day Name
  {bbd5fccc-24ed-4b5d-bac4-246eaa6cda43}, !- Friday Schedule:Day Name
  {bbd5fccc-24ed-4b5d-bac4-246eaa6cda43}, !- Saturday Schedule:Day Name
  {bbd5fccc-24ed-4b5d-bac4-246eaa6cda43}, !- Holiday Schedule:Day Name
  {bbd5fccc-24ed-4b5d-bac4-246eaa6cda43}, !- SummerDesignDay Schedule:Day Name
  {bbd5fccc-24ed-4b5d-bac4-246eaa6cda43}, !- WinterDesignDay Schedule:Day Name
  {bbd5fccc-24ed-4b5d-bac4-246eaa6cda43}, !- CustomDay1 Schedule:Day Name
  {bbd5fccc-24ed-4b5d-bac4-246eaa6cda43}; !- CustomDay2 Schedule:Day Name

OS:Schedule:Day,
  {bbd5fccc-24ed-4b5d-bac4-246eaa6cda43}, !- Handle
  aim0499,                                !- Name
  {a7f25e2c-c9d1-4958-a3b4-905d6ae3cab2}, !- Schedule Type Limits Name
  ,                                       !- Interpolate to Timestep
  1,                                      !- Hour 1
  0,                                      !- Minute 1
  0,                                      !- Value Until Time 1
  2,                                      !- Hour 2
  0,                                      !- Minute 2
  0,                                      !- Value Until Time 2
  3,                                      !- Hour 3
  0,                                      !- Minute 3
  0,                                      !- Value Until Time 3
  4,                                      !- Hour 4
  0,                                      !- Minute 4
  0,                                      !- Value Until Time 4
  5,                                      !- Hour 5
  0,                                      !- Minute 5
  0,                                      !- Value Until Time 5
  6,                                      !- Hour 6
  0,                                      !- Minute 6
  0,                                      !- Value Until Time 6
  7,                                      !- Hour 7
  0,                                      !- Minute 7
  0,                                      !- Value Until Time 7
  8,                                      !- Hour 8
  0,                                      !- Minute 8
  0.15,                                   !- Value Until Time 8
  9,                                      !- Hour 9
  0,                                      !- Minute 9
  0.7,                                    !- Value Until Time 9
  10,                                     !- Hour 10
  0,                                      !- Minute 10
  0.9,                                    !- Value Until Time 10
  11,                                     !- Hour 11
  0,                                      !- Minute 11
  0.9,                                    !- Value Until Time 11
  12,                                     !- Hour 12
  0,                                      !- Minute 12
  0.9,                                    !- Value Until Time 12
  13,                                     !- Hour 13
  0,                                      !- Minute 13
  0.5,                                    !- Value Until Time 13
  14,                                     !- Hour 14
  0,                                      !- Minute 14
  0.85,                                   !- Value Until Time 14
  15,                                     !- Hour 15
  0,                                      !- Minute 15
  0.85,                                   !- Value Until Time 15
  16,                                     !- Hour 16
  0,                                      !- Minute 16
  0.85,                                   !- Value Until Time 16
  17,                                     !- Hour 17
  0,                                      !- Minute 17
  0.2,                                    !- Value Until Time 17
  18,                                     !- Hour 18
  0,                                      !- Minute 18
  0,                                      !- Value Until Time 18
  19,                                     !- Hour 19
  0,                                      !- Minute 19
  0,                                      !- Value Until Time 19
  20,                                     !- Hour 20
  0,                                      !- Minute 20
  0,                                      !- Value Until Time 20
  21,                                     !- Hour 21
  0,                                      !- Minute 21
  0,                                      !- Value Until Time 21
  22,                                     !- Hour 22
  0,                                      !- Minute 22
  0,                                      !- Value Until Time 22
  23,                                     !- Hour 23
  0,                                      !- Minute 23
  0,                                      !- Value Until Time 23
  24,                                     !- Hour 24
  0,                                      !- Minute 24
  0;                                      !- Value Until Time 24

OS:Schedule:Year,
  {19733102-d47c-42df-87b5-40b1a417a63e}, !- Handle
  aim0859,                                !- Name
  {a7f25e2c-c9d1-4958-a3b4-905d6ae3cab2}, !- Schedule Type Limits Name
  12,                                     !- Month 1
  31,                                     !- Day 1
  {1572bb05-16d5-4438-9814-2addd8f598a1}; !- Week Schedule Until Date 1

OS:Schedule:Week,
  {1572bb05-16d5-4438-9814-2addd8f598a1}, !- Handle
  aim0857,                                !- Name
  ,                                       !- Schedule Rendering Name
  {9a42ee4c-16f1-4851-b19d-6d5d7def0837}, !- Sunday Schedule:Day Name
  {9a42ee4c-16f1-4851-b19d-6d5d7def0837}, !- Monday Schedule:Day Name
  {9a42ee4c-16f1-4851-b19d-6d5d7def0837}, !- Tuesday Schedule:Day Name
  {9a42ee4c-16f1-4851-b19d-6d5d7def0837}, !- Wednesday Schedule:Day Name
  {9a42ee4c-16f1-4851-b19d-6d5d7def0837}, !- Thursday Schedule:Day Name
  {9a42ee4c-16f1-4851-b19d-6d5d7def0837}, !- Friday Schedule:Day Name
  {9a42ee4c-16f1-4851-b19d-6d5d7def0837}, !- Saturday Schedule:Day Name
  {9a42ee4c-16f1-4851-b19d-6d5d7def0837}, !- Holiday Schedule:Day Name
  {9a42ee4c-16f1-4851-b19d-6d5d7def0837}, !- SummerDesignDay Schedule:Day Name
  {9a42ee4c-16f1-4851-b19d-6d5d7def0837}, !- WinterDesignDay Schedule:Day Name
  {9a42ee4c-16f1-4851-b19d-6d5d7def0837}, !- CustomDay1 Schedule:Day Name
  {9a42ee4c-16f1-4851-b19d-6d5d7def0837}; !- CustomDay2 Schedule:Day Name

OS:Schedule:Day,
  {9a42ee4c-16f1-4851-b19d-6d5d7def0837}, !- Handle
  aim0856,                                !- Name
  {a7f25e2c-c9d1-4958-a3b4-905d6ae3cab2}, !- Schedule Type Limits Name